Circuit: * E:\Documents\OneDrive - The University Of Newcastle\2020 Semester 1\Final Year Engineering Project Part A\Circuit (Air) (Indapendent Power Source)\TX FINAL.asc

Direct Newton iteration for .op point succeeded.

Date: Tue Sep 22 16:37:44 2020
Total elapsed time: 3.883 seconds.

tnom = 27
temp = 27
method = modified trap
totiter = 1841262
traniter = 1841249
tranpoints = 525200
accept = 359576
rejected = 165624
matrix size = 11
fillins = 0
solver = Normal
Matrix Compiler1: 556 bytes object code size  0.1/0.1/[0.1]
Matrix Compiler2: off  [0.1]/0.1/0.1

